8
centroid = [0,0,0]       
 C    5.952337    5.949921    9.625788
 N    7.120158    5.951088    9.026365
 N    4.782671    5.951136    9.029503
 H    5.953691    5.947187   10.715560
 H    7.959493    5.950053    9.603210
 H    7.236967    5.953598    8.012452
 H    4.662894    5.953603    8.016116
 H    3.944942    5.950159    9.609324
